/*--------------------------------*- C++ -*----------------------------------*\
| =========                 |                                                 |
| \\      /  F ield         | OpenFOAM: The Open Source CFD Toolbox           |
|  \\    /   O peration     | Version:  2.1.0                                 |
|   \\  /    A nd           | Web:      www.OpenFOAM.org                      |
|    \\/     M anipulation  |                                                 |
\*---------------------------------------------------------------------------*/
FoamFile
{
    version     2.0;
    format      ascii;
    class       dictionary;
    object      RASProperties;
}
// * * * * * * * * * * * * * * * * * * * * * * * * * * * * * * * * * * * * * //

RASModel            kEpsilon;

turbulence          on;

printCoeffs         on;

kEpsilonCoeffs
{
    Cmu         0.03;
    C1          1.21;
    C2          1.92;
    C3          -0.33;
    sigmak      1.0;
    sigmaEps    1.3; //Original value:1.44 then 1.11
    Prt         1.0;
}

// ************************************************************************* //
